<?xml version="1.0" encoding="UTF-8"?>

<!-- generated on 2022-12-09 09:40:09 by Eclipse SUMO polyconvert Version 1.14.1
<configuration xmlns:xsi="http://www.w3.org/2001/XMLSchema-instance" xsi:noNamespaceSchemaLocation="http://sumo.dlr.de/xsd/polyconvertConfiguration.xsd">

    <input>
        <net-file value="osm.net.xml"/>
        <osm-files value="osm_bbox.osm.xml.gz"/>
        <osm.keep-full-type value="true"/>
        <type-file value="/opt/venv/lib/python3.9/site-packages/sumo/data/typemap/osmPolyconvert.typ.xml"/>
    </input>

    <output>
        <output-file value="osm.poly.xml"/>
    </output>

    <report>
        <verbose value="true"/>
    </report>

</configuration>
-->

<additional xmlns:xsi="http://www.w3.org/2001/XMLSchema-instance" xsi:noNamespaceSchemaLocation="http://sumo.dlr.de/xsd/additional_file.xsd">
    <location netOffset="-558366.97,-5381990.89" convBoundary="-6068.83,-2652.75,9389.11,11623.59" origBoundary="9.709174,48.563861,9.920001,48.692032" projParameter="+proj=utm +zone=32 +ellps=WGS84 +datum=WGS84 +units=m +no_defs"/>

    <poly id="1015847795" type="building.detached" color="255,230,230" fill="1" layer="-1.00" shape="2537.505640,3605.496535 2543.573806,3597.113338 2534.037140,3590.239894 2527.968981,3598.623101 2537.505640,3605.496535"/>
    <poly id="1015847796" type="building.apartments" color="255,230,230" fill="1" layer="-1.00" shape="2353.905059,3292.949527 2337.524627,3278.142921 2336.278851,3279.519100 2327.541128,3271.620768 2340.729335,3257.110901 2349.591154,3265.121762 2347.457787,3267.466652 2353.261054,3272.709757 2354.827585,3270.981301 2361.397255,3276.921933 2358.793940,3279.784244 2362.684720,3283.294714 2353.905059,3292.949527"/>
    <poly id="1015847797" type="building.detached" color="255,230,230" fill="1" layer="-1.00" shape="2311.295741,3301.016624 2317.736574,3292.248113 2311.673966,3287.813785 2305.233138,3296.582303 2311.295741,3301.016624"/>
    <poly id="1016002559" type="building.yes" color="255,230,230" fill="1" layer="-1.00" shape="3608.041325,3375.324318 3616.496045,3378.630246 3626.862929,3365.593049 3619.614612,3357.820250 3609.925026,3367.585409 3608.041325,3375.324318"/>
    <poly id="1016012207" type="amenity.parking" color="184,184,179" fill="1" layer="-1.00" shape="3085.669905,3499.997655 3120.631452,3521.323936 3140.953179,3488.184004 3105.984006,3466.868634 3085.669905,3499.997655"/>
    <poly id="1016012208" type="landuse.construction" color="194,194,130" fill="1" layer="-3.00" shape="3017.450458,3421.367621 3051.223973,3441.535446 3042.637666,3455.671453 3070.597900,3472.240769 3104.116777,3416.488379 3059.136980,3389.149747 3017.450458,3421.367621"/>
    <poly id="1016013461" type="amenity.recycling" color="237,199,199" fill="1" layer="-1.00" shape="2138.378827,3376.195131 2144.919590,3384.147363 2147.075614,3382.425190 2140.609268,3374.407054 2138.378827,3376.195131"/>
    <poly id="1016685204" type="amenity.parking" color="184,184,179" fill="1" layer="-1.00" shape="3193.836836,3550.883930 3236.018894,3575.747320 3222.892868,3597.893168 3185.065935,3575.812285 3193.836836,3550.883930"/>
    <poly id="1038000423" type="building.detached" color="255,230,230" fill="1" layer="-1.00" shape="1665.764467,3606.000479 1676.778067,3602.338240 1673.628073,3592.933069 1662.621827,3596.595393 1665.764467,3606.000479"/>
    <poly id="1038000424" type="building.garage" color="255,230,230" fill="1" layer="-1.00" shape="1656.209945,3587.577878 1662.140509,3585.751266 1661.278434,3582.962841 1655.340380,3584.800490 1656.209945,3587.577878"/>
    <poly id="1038000425" type="building.garage" color="255,230,230" fill="1" layer="-1.00" shape="1655.340380,3584.800490 1661.278434,3582.962841 1660.408989,3580.174338 1654.478420,3582.000951 1655.340380,3584.800490"/>
    <poly id="1038000426" type="building.garage" color="255,230,230" fill="1" layer="-1.00" shape="1654.478420,3582.000951 1660.408989,3580.174338 1659.575442,3577.475152 1653.637383,3579.312803 1654.478420,3582.000951"/>
    <poly id="1038000427" type="building.garage" color="255,230,230" fill="1" layer="-1.00" shape="1653.637383,3579.312803 1659.575442,3577.475152 1658.570597,3574.251645 1652.639904,3576.089376 1653.637383,3579.312803"/>
    <poly id="1038000428" type="building.garage" color="255,230,230" fill="1" layer="-1.00" shape="1652.639904,3576.089376 1658.570597,3574.251645 1657.715533,3571.496646 1651.777586,3573.323183 1652.639904,3576.089376"/>
    <poly id="1038000429" type="building.garage" color="255,230,230" fill="1" layer="-1.00" shape="1641.121344,3580.102019 1647.059399,3578.264355 1646.196960,3575.509279 1640.266272,3577.347023 1641.121344,3580.102019"/>
    <poly id="1038000430" type="building.garage" color="255,230,230" fill="1" layer="-1.00" shape="1642.126198,3583.325523 1648.056880,3581.487781 1647.059399,3578.264355 1641.121344,3580.102019 1642.126198,3583.325523"/>
    <poly id="1038000431" type="building.garage" color="255,230,230" fill="1" layer="-1.00" shape="1643.829205,3588.813207 1649.767133,3586.986661 1648.897801,3584.187044 1642.959752,3586.024706 1643.829205,3588.813207"/>
    <poly id="1038000432" type="building.garage" color="255,230,230" fill="1" layer="-1.00" shape="1644.691287,3591.601629 1650.629331,3589.763969 1649.767133,3586.986661 1643.829205,3588.813207 1644.691287,3591.601629"/>
    <poly id="1038000433" type="building.garage" color="255,230,230" fill="1" layer="-1.00" shape="1642.959752,3586.024706 1648.897801,3584.187044 1648.056880,3581.487781 1642.126198,3583.325523 1642.959752,3586.024706"/>
    <poly id="1038000434" type="building.garage" color="255,230,230" fill="1" layer="-1.00" shape="1625.942778,3463.534986 1631.880949,3461.697306 1630.876066,3458.473804 1624.945262,3460.311565 1625.942778,3463.534986"/>
    <poly id="1038000435" type="building.garage" color="255,230,230" fill="1" layer="-1.00" shape="1627.653210,3469.022742 1633.584007,3467.184985 1632.714528,3464.396486 1626.783848,3466.223129 1627.653210,3469.022742"/>
    <poly id="1038000436" type="building.garage" color="255,230,230" fill="1" layer="-1.00" shape="1628.515439,3471.800046 1634.446114,3469.973405 1633.584007,3467.184985 1627.653210,3469.022742 1628.515439,3471.800046"/>
    <poly id="1038000437" type="building.garage" color="255,230,230" fill="1" layer="-1.00" shape="1626.783848,3466.223129 1632.714528,3464.396486 1631.880949,3461.697306 1625.942778,3463.534986 1626.783848,3466.223129"/>
    <poly id="1038000438" type="building.yes" color="255,230,230" fill="1" layer="-1.00" shape="1614.547519,3467.715756 1620.478312,3465.877984 1619.480793,3462.654563 1613.542627,3464.492257 1614.547519,3467.715756"/>
    <poly id="1038000439" type="building.garage" color="255,230,230" fill="1" layer="-1.00" shape="1616.250591,3473.203429 1622.188749,3471.365738 1621.319265,3468.577241 1615.381223,3470.403818 1616.250591,3473.203429"/>
    <poly id="1038000440" type="building.garage" color="255,230,230" fill="1" layer="-1.00" shape="1617.112825,3475.980731 1623.050861,3474.154157 1622.188749,3471.365738 1616.250591,3473.203429 1617.112825,3475.980731"/>
    <poly id="1038000441" type="building.garage" color="255,230,230" fill="1" layer="-1.00" shape="1615.381223,3470.403818 1621.319265,3468.577241 1620.478312,3465.877984 1614.547519,3467.715756 1615.381223,3470.403818"/>
    <poly id="1038000442" type="building.garage" color="255,230,230" fill="1" layer="-1.00" shape="1603.270002,3398.604018 1609.208233,3396.766313 1608.203325,3393.542816 1602.272460,3395.380600 1603.270002,3398.604018"/>
    <poly id="1038000443" type="building.garage" color="255,230,230" fill="1" layer="-1.00" shape="1604.973108,3404.091687 1610.911216,3402.265099 1610.041834,3399.465489 1604.111093,3401.292156 1604.973108,3404.091687"/>
    <poly id="1038000444" type="building.garage" color="255,230,230" fill="1" layer="-1.00" shape="1605.842610,3406.880181 1611.773464,3405.042400 1610.911216,3402.265099 1604.973108,3404.091687 1605.842610,3406.880181"/>
    <poly id="1038000445" type="building.garage" color="255,230,230" fill="1" layer="-1.00" shape="1604.111093,3401.292156 1610.041834,3399.465489 1609.208233,3396.766313 1603.270002,3398.604018 1604.111093,3401.292156"/>
    <poly id="1038000446" type="building.garage" color="255,230,230" fill="1" layer="-1.00" shape="1621.989547,3382.884127 1624.168362,3388.688147 1626.884233,3387.672111 1624.705303,3381.879206 1621.989547,3382.884127"/>
    <poly id="1038000447" type="building.garage" color="255,230,230" fill="1" layer="-1.00" shape="1618.822218,3384.073224 1620.993784,3389.866048 1624.168362,3388.688147 1621.989547,3382.884127 1618.822218,3384.073224"/>
    <poly id="1038000448" type="building.garage" color="255,230,230" fill="1" layer="-1.00" shape="1613.420310,3386.072272 1615.591762,3391.876210 1618.344480,3390.860563 1616.173030,3385.056624 1613.420310,3386.072272"/>
    <poly id="1038000449" type="building.garage" color="255,230,230" fill="1" layer="-1.00" shape="1610.682212,3387.099195 1612.853667,3392.903132 1615.591762,3391.876210 1613.420310,3386.072272 1610.682212,3387.099195"/>
    <poly id="1038000450" type="building.garage" color="255,230,230" fill="1" layer="-1.00" shape="1616.173030,3385.056624 1618.344480,3390.860563 1620.993784,3389.866048 1618.822218,3384.073224 1616.173030,3385.056624"/>
    <poly id="1038000451" type="building.garage" color="255,230,230" fill="1" layer="-1.00" shape="1677.784504,3597.813278 1679.763363,3603.693008 1682.529781,3602.766475 1680.558294,3596.886822 1677.784504,3597.813278"/>
    <poly id="1038000452" type="building.garage" color="255,230,230" fill="1" layer="-1.00" shape="1680.818245,3596.700609 1682.797220,3602.569225 1685.563639,3601.642693 1683.592036,3595.774155 1680.818245,3596.700609"/>
    <poly id="1038000453" type="building.shed" color="255,230,230" fill="1" layer="-1.00" shape="1683.736165,3587.793748 1689.545370,3585.599012 1688.505727,3582.875389 1682.696519,3585.070126 1683.736165,3587.793748"/>
    <poly id="1038000454" type="building.shed" color="255,230,230" fill="1" layer="-1.00" shape="1669.008424,3612.816407 1670.987286,3618.696135 1673.753695,3617.769598 1671.782205,3611.889947 1669.008424,3612.816407"/>
    <poly id="1038000455" type="building.shed" color="255,230,230" fill="1" layer="-1.00" shape="1678.032439,3623.618284 1680.011407,3629.486900 1682.777812,3628.560367 1680.806216,3622.691829 1678.032439,3623.618284"/>
    <poly id="1038000456" type="building.detached" color="255,230,230" fill="1" layer="-1.00" shape="1646.008753,3376.147691 1657.023022,3372.463180 1653.872618,3363.080256 1642.851082,3366.753579 1645.180165,3373.670901 1646.008753,3376.147691"/>
    <poly id="1038000457" type="building.detached" color="255,230,230" fill="1" layer="-1.00" shape="1667.049861,3368.757039 1678.056552,3365.094721 1674.913786,3355.689632 1663.899710,3359.351878 1667.049861,3368.757039"/>
    <poly id="1038000458" type="leisure.playground" color="207,245,201" fill="1" layer="-2.00" shape="1710.969598,3217.079709 1710.877260,3205.706124 1709.837841,3205.717262 1699.377557,3205.805710 1699.470038,3217.168179 1710.969598,3217.079709"/>
    <poly id="1038000459" type="leisure.playground" color="207,245,201" fill="1" layer="-2.00" shape="1738.185830,3182.996833 1718.927157,3150.396507 1690.427929,3143.766783 1666.239405,3178.715950 1683.565676,3192.107689 1711.965835,3196.257255 1738.185830,3182.996833"/>
    <poly id="1038000460" type="building.house" color="255,230,230" fill="1" layer="-1.00" shape="1605.272765,3469.340023 1601.776380,3458.530476 1590.837908,3462.038029 1594.326824,3472.858607 1605.272765,3469.340023"/>
    <poly id="1038001356" type="amenity.bicycle_parking" color="237,199,199" fill="1" layer="-1.00" shape="1926.752257,3678.738635 1937.366126,3656.674108 1890.191943,3650.165593 1895.360799,3665.784642 1913.713852,3668.449186 1926.752257,3678.738635"/>
    <poly id="1038002284" type="building.container" color="255,230,230" fill="1" layer="-1.00" shape="1936.391961,3724.877129 1950.753933,3722.374122 1946.419454,3697.692549 1932.057421,3700.195567 1936.391961,3724.877129"/>
    <poly id="1038051355" type="leisure.pitch" color="207,245,201" fill="1" layer="-2.00" shape="1707.496273,3192.374209 1682.485882,3188.994550 1683.485783,3181.634709 1708.496207,3185.014372 1707.496273,3192.374209"/>
    <poly id="1038051355#1" type="sport.basketball" color="79,230,125" fill="1" layer="-2.00" shape="1707.496273,3192.374209 1682.485882,3188.994550 1683.485783,3181.634709 1708.496207,3185.014372 1707.496273,3192.374209"/>
    <poly id="1038051356" type="leisure.pitch" color="207,245,201" fill="1" layer="-2.00" shape="1720.802974,3177.675196 1722.835720,3164.712350 1682.465773,3158.411722 1680.425748,3171.374503 1720.802974,3177.675196"/>
    <poly id="1038051356#1" type="sport.soccer" color="79,230,125" fill="1" layer="-2.00" shape="1720.802974,3177.675196 1722.835720,3164.712350 1682.465773,3158.411722 1680.425748,3171.374503 1720.802974,3177.675196"/>
    <poly id="1038051357" type="building.garage" color="255,230,230" fill="1" layer="-1.00" shape="1637.909162,3368.468470 1640.304935,3375.353150 1645.180165,3373.670901 1642.851082,3366.753579 1637.909162,3368.468470"/>
    <poly id="1038051358" type="landuse.garages" color="194,194,130" fill="1" layer="-3.00" shape="1743.351956,3668.850061 1751.227538,3654.671192 1741.295061,3627.506503 1726.485566,3631.183660 1719.442823,3632.942742 1699.624733,3638.389663 1702.582942,3648.493169 1721.858773,3661.383383 1743.351956,3668.850061"/>
    <poly id="1038051360" type="building.garage" color="255,230,230" fill="1" layer="-1.00" shape="1775.458232,3590.818854 1777.436993,3596.698620 1780.203431,3595.772134 1778.232042,3589.892446 1775.458232,3590.818854"/>
    <poly id="1038051361" type="building.shed" color="255,230,230" fill="1" layer="-1.00" shape="1711.106973,3584.617434 1716.916193,3582.422726 1715.876562,3579.699098 1710.067340,3581.893807 1711.106973,3584.617434"/>
    <poly id="1038051362" type="building.shed" color="255,230,230" fill="1" layer="-1.00" shape="1734.942725,3576.356414 1740.751963,3574.161730 1739.712342,3571.438097 1733.903102,3573.632782 1734.942725,3576.356414"/>
    <poly id="1038051363" type="building.shed" color="255,230,230" fill="1" layer="-1.00" shape="1747.348565,3572.086634 1753.157813,3569.891963 1752.118197,3567.168328 1746.308947,3569.363000 1747.348565,3572.086634"/>
    <poly id="1038051364" type="building.shed" color="255,230,230" fill="1" layer="-1.00" shape="1759.862594,3568.040375 1771.266205,3563.759939 1770.276996,3561.148008 1758.873380,3565.428447 1759.862594,3568.040375"/>
    <poly id="1038287870" type="leisure.pitch" color="207,245,201" fill="1" layer="-2.00" shape="1968.810885,3540.239003 2012.697680,3519.365245 2001.156406,3495.228859 1957.262220,3516.091512 1968.810885,3540.239003"/>
    <poly id="1038287870#1" type="sport.soccer" color="79,230,125" fill="1" layer="-2.00" shape="1968.810885,3540.239003 2012.697680,3519.365245 2001.156406,3495.228859 1957.262220,3516.091512 1968.810885,3540.239003"/>
    <poly id="1038287871" type="leisure.playground" color="207,245,201" fill="1" layer="-2.00" shape="1984.720540,3498.621092 2007.033217,3486.754109 2010.014824,3471.277988 2002.687372,3468.631364 1989.981313,3476.799408 1978.809455,3490.364525 1984.720540,3498.621092"/>
    <poly id="1038289061" type="amenity.kindergarten" color="237,199,199" fill="1" layer="-2.00" shape="1771.125271,3476.946425 1802.802492,3466.056962 1796.792666,3448.394625 1789.545499,3427.884254 1784.099981,3411.895503 1763.096800,3350.894865 1729.449955,3361.885812 1771.125271,3476.946425"/>
    <poly id="1038291483" type="building.garage" color="255,230,230" fill="1" layer="-1.00" shape="1656.934622,3356.565055 1659.330377,3363.449743 1664.205623,3361.767511 1661.876558,3354.850181 1656.934622,3356.565055"/>
    <poly id="1038291484" type="building.garage" color="255,230,230" fill="1" layer="-1.00" shape="1674.895438,3353.955198 1677.511946,3362.254097 1684.145738,3360.168203 1681.529239,3351.869301 1674.895438,3353.955198"/>
    <poly id="1039055135" type="building.garage" color="255,230,230" fill="1" layer="-1.00" shape="3081.589660,4093.599389 3087.425726,4091.650960 3085.191853,4084.978608 3079.355903,4086.915923 3081.589660,4093.599389"/>
    <poly id="1042051597" type="building.cabin" color="255,230,230" fill="1" layer="-1.00" shape="2082.036140,3108.661158 2085.201620,3111.785664 2089.091379,3107.869823 2085.925899,3104.745315 2082.036140,3108.661158"/>
    <poly id="1051160994" type="building.apartments" color="255,230,230" fill="1" layer="-1.00" shape="3751.360453,4850.985792 3761.642424,4849.431799 3761.764578,4833.035549 3782.179515,4833.416717 3782.365328,4823.268934 3761.802994,4822.886138 3758.016094,4822.822077 3758.056370,4821.844224 3742.890591,4821.232061 3742.436169,4832.355176 3751.613719,4832.723331 3751.360453,4850.985792"/>
    <poly id="1051161142" type="building.yes" color="255,230,230" fill="1" layer="-1.00" shape="3814.610333,4824.714773 3820.518726,4824.179773 3820.006207,4818.548895 3814.090440,4819.083814 3814.261487,4820.942247 3814.610333,4824.714773"/>
    <poly id="1051161143" type="building.yes" color="255,230,230" fill="1" layer="-1.00" shape="3806.160098,4827.211628 3814.768241,4826.428539 3814.610333,4824.714773 3814.261487,4820.942247 3805.660703,4821.725418 3805.857662,4823.906531 3806.160098,4827.211628"/>
    <poly id="1051161144" type="building.yes" color="255,230,230" fill="1" layer="-1.00" shape="3797.570736,4830.296160 3806.370686,4829.492944 3806.160098,4827.211628 3805.857662,4823.906531 3797.057703,4824.709748 3797.570736,4830.296160"/>
    <poly id="1051161145" type="building.yes" color="255,230,230" fill="1" layer="-1.00" shape="3785.715418,4828.186321 3794.273209,4827.291474 3793.706262,4821.915689 3785.148463,4822.810537 3785.715418,4828.186321"/>
    <poly id="1051161146" type="building.yes" color="255,230,230" fill="1" layer="-1.00" shape="3787.529627,4840.724129 3796.279458,4839.786940 3795.684640,4834.266325 3786.934801,4835.203516 3787.529627,4840.724129"/>
    <poly id="1052211741" type="building.apartments" color="255,230,230" fill="1" layer="-1.00" shape="2653.523828,3362.825356 2655.213374,3354.517083 2641.769037,3351.803298 2640.086880,3360.111655 2653.523828,3362.825356"/>
    <poly id="1052211742" type="building.apartments" color="255,230,230" fill="1" layer="-1.00" shape="2635.511562,3361.974170 2637.201082,3353.665892 2623.756735,3350.952150 2622.074604,3359.260512 2635.511562,3361.974170"/>
    <poly id="1052223952" type="building.yes" color="255,230,230" fill="1" layer="-1.00" shape="2917.795366,3310.679349 2923.590513,3307.818703 2921.195982,3302.990099 2915.400952,3305.839632 2917.795366,3310.679349"/>
    <poly id="1053630995" type="landuse.orchard" color="194,194,130" fill="1" layer="-3.00" shape="2267.717805,3200.605707 2212.563822,3116.801529 2189.746757,3074.667392 2176.132668,3018.447156 2165.620419,2954.111619 2163.948978,2901.165980 2156.648982,2838.321343 2147.515215,2768.442233 2109.949407,2697.145897 2068.024093,2622.590241 2061.542004,2599.464172 2033.537461,2543.756915 2023.791385,2558.237728 2005.401106,2555.272342 1958.979549,2554.029806 1926.415982,2601.739293 1975.674960,2620.887976 1932.843220,2685.084899 1818.266311,2639.579967 1796.354332,2685.414160 1828.110816,2714.401953 1794.662012,2756.844413 1870.472168,2890.324428 1896.369608,2936.959179 1997.134112,3055.255778 2034.260721,3087.014940 2085.736378,3115.526694 2112.576179,3127.020921 2147.396214,3144.915496 2267.717805,3200.605707"/>
    <poly id="1053630996" type="landuse.meadow" color="194,194,130" fill="1" layer="-3.00" shape="1818.266311,2639.579967 1932.843220,2685.084899 1975.674960,2620.887976 1926.415982,2601.739293 1901.568865,2592.512968 1849.943332,2573.339627 1818.266311,2639.579967"/>
    <poly id="1053630998" type="landuse.orchard" color="194,194,130" fill="1" layer="-3.00" shape="1901.568865,2592.512968 1927.046319,2542.893144 1890.906859,2533.523691 1868.658903,2534.197154 1849.943332,2573.339627 1901.568865,2592.512968"/>
    <poly id="1053630999" type="landuse.meadow" color="194,194,130" fill="1" layer="-3.00" shape="2023.791385,2558.237728 1982.287826,2506.021159 1957.644164,2490.159983 1945.012045,2500.863604 1880.261035,2488.152823 1872.172760,2526.853134 1890.906859,2533.523691 1927.046319,2542.893144 1901.568865,2592.512968 1926.415982,2601.739293 1958.979549,2554.029806 2005.401106,2555.272342 2023.791385,2558.237728"/>
    <poly id="1053714296" type="landuse.meadow" color="194,194,130" fill="1" layer="-3.00" shape="1549.559625,3649.907696 1566.826254,3639.030255 1539.753892,3596.208666 1519.596262,3608.634024 1549.559625,3649.907696"/>
    <poly id="1053714297" type="landuse.orchard" color="194,194,130" fill="1" layer="-3.00" shape="1549.559625,3649.907696 1577.208020,3705.041902 1605.813928,3693.107000 1611.947573,3704.022487 1595.675745,3710.085650 1617.576760,3762.946561 1624.872148,3773.418656 1599.738213,3783.945259 1571.147039,3795.924809 1544.482432,3799.331641 1571.839250,3839.566075 1605.838391,3893.411854 1633.321984,3938.950731 1657.759485,3927.327400 1636.291526,3880.952081 1725.930808,3844.611473 1709.672156,3809.430668 1761.251358,3789.148515 1709.724034,3701.719392 1694.693582,3681.926457 1625.477435,3641.989821 1610.700453,3637.096488 1600.922374,3645.863568 1571.071615,3645.945726 1566.826254,3639.030255 1549.559625,3649.907696"/>
    <poly id="1053714298" type="landuse.forest" color="140,196,107" fill="1" layer="-3.00" shape="1577.208020,3705.041902 1599.738213,3783.945259 1571.147039,3795.924809 1544.482432,3799.331641 1533.865296,3789.335666 1520.481365,3730.451433 1512.281529,3707.985824 1534.127839,3700.981240 1530.339970,3676.706051 1516.961454,3649.138236 1493.908170,3626.169978 1466.312968,3619.984519 1482.511172,3598.678917 1493.582618,3581.254204 1500.536976,3558.705281 1496.451630,3529.113078 1477.519958,3494.860623 1460.870630,3479.542359 1442.893328,3410.937830 1488.274063,3401.959854 1501.138466,3467.530808 1517.706586,3516.098999 1534.387070,3579.009257 1539.753892,3596.208666 1519.596262,3608.634024 1549.559625,3649.907696 1577.208020,3705.041902"/>
    <poly id="1058105213" type="amenity.parking" color="184,184,179" fill="1" layer="-1.00" shape="2234.758721,4201.419888 2240.800564,4217.271038 2202.721275,4228.266926 2199.309676,4206.996830 2234.758721,4201.419888"/>
    <poly id="1058109443" type="building.apartments" color="255,230,230" fill="1" layer="-1.00" shape="1927.101900,4359.954627 1949.276090,4351.743454 1946.296086,4343.751776 1940.243909,4345.988100 1939.226763,4343.253546 1931.369265,4346.159777 1932.479466,4349.151016 1924.215040,4352.208532 1927.101900,4359.954627"/>
    <poly id="1058112102" type="building.yes" color="255,230,230" fill="1" layer="-1.00" shape="2053.726034,4330.196852 2063.038019,4326.361474 2058.828775,4316.188727 2049.509408,4320.024033 2053.726034,4330.196852"/>
    <poly id="1058113188" type="building.detached" color="255,230,230" fill="1" layer="-1.00" shape="2133.438330,4307.196573 2144.422274,4306.881147 2144.132211,4296.850542 2133.155617,4297.166049 2133.438330,4307.196573"/>
    <poly id="1058132361" type="building.detached" color="255,230,230" fill="1" layer="-1.00" shape="2064.965772,4275.877913 2062.710476,4261.490599 2048.566851,4263.684368 2050.822183,4278.071676 2064.965772,4275.877913"/>
    <poly id="1058132362" type="building.detached" color="255,230,230" fill="1" layer="-1.00" shape="2078.917907,4273.671012 2078.369842,4267.750910 2078.069697,4264.134679 2067.780090,4264.980192 2068.562715,4274.449116 2076.468875,4273.889272 2078.917907,4273.671012"/>
    <poly id="1058132363" type="building.garage" color="255,230,230" fill="1" layer="-1.00" shape="2076.858364,4278.106778 2080.819647,4277.749129 2081.794811,4275.469517 2083.092058,4275.450105 2082.560885,4269.330080 2082.449150,4267.383414 2078.369842,4267.750910 2078.917907,4273.671012 2076.468875,4273.889272 2076.858364,4278.106778"/>
    <poly id="1058132364" type="building.garages" color="255,230,230" fill="1" layer="-1.00" shape="2083.092058,4275.450105 2101.525520,4273.869495 2100.994367,4267.749467 2082.560885,4269.330080 2083.092058,4275.450105"/>
    <poly id="1058132592" type="leisure.playground" color="207,245,201" fill="1" layer="-2.00" shape="2174.086190,4288.234785 2203.263542,4283.312767 2201.064267,4265.123998 2171.911822,4267.722855 2174.086190,4288.234785"/>
    <poly id="1059386466" type="landuse.farmland" color="194,194,130" fill="1" layer="-3.00" shape="1259.599904,5305.627019 1273.289814,5284.794531 1291.378435,5267.454983 1248.942861,5201.615223 1216.092708,5230.348988 1259.599904,5305.627019"/>
    <poly id="1059386467" type="landuse.farmland" color="194,194,130" fill="1" layer="-3.00" shape="1277.917513,5169.416530 1255.367040,5136.371374 1228.629860,5097.178759 1216.837911,5100.889162 1194.999879,5116.010326 1244.610581,5195.332706 1277.917513,5169.416530"/>
    <poly id="1059386468" type="landuse.farmland" color="194,194,130" fill="1" layer="-3.00" shape="1255.367040,5136.371374 1228.629860,5097.178759 1260.918552,5072.830291 1246.949437,5048.358379 1324.537255,4979.155753 1336.655432,4968.345316 1383.851298,5024.531188 1275.922967,5118.479848 1255.367040,5136.371374"/>
    <poly id="1059386469" type="landuse.allotments" color="194,194,130" fill="1" layer="-3.00" shape="1212.553882,5019.089920 1159.563380,5057.704877 1187.626360,5101.880452 1190.655988,5106.637226 1196.437689,5104.786342 1199.497299,5108.798604 1247.536544,5077.779986 1212.553882,5019.089920"/>
    <poly id="1059386470" type="landuse.orchard" color="194,194,130" fill="1" layer="-3.00" shape="1072.878968,5150.592678 1060.722905,5124.628498 1127.085571,5082.552181 1159.563380,5057.704877 1187.626360,5101.880452 1130.715188,5139.953893 1124.931280,5134.356482 1117.548092,5129.486996 1110.044666,5129.018550 1096.539606,5135.179044 1079.020016,5147.500377 1072.878968,5150.592678"/>
    <poly id="1059387153" type="landuse.industrial" color="209,209,204" fill="1" layer="-3.00" shape="1275.922967,5118.479848 1295.640718,5154.607776 1307.160977,5168.859614 1286.483666,5179.445915 1322.778768,5242.741711 1345.742725,5226.354551 1387.608632,5210.457317 1420.769519,5202.494272 1480.496247,5179.016883 1480.259150,5173.600412 1533.352010,5153.854980 1556.578867,5137.782738 1580.855643,5059.166769 1602.443865,5035.806766 1648.169565,5016.095014 1697.648834,4974.056426 1641.442697,4868.234668 1598.110813,4818.813562 1568.933909,4812.254872 1530.343599,4830.231207 1521.469179,4828.380237 1542.919303,4730.868602 1520.654248,4724.972991 1494.240539,4735.686476 1482.833914,4744.647629 1453.967806,4783.650022 1437.217050,4788.630156 1416.251235,4744.395374 1344.288119,4755.359349 1372.410680,4798.102372 1328.483166,4830.920078 1321.370523,4846.363822 1350.611236,4867.740766 1328.296019,4901.321577 1249.124418,4870.266083 1238.492283,4902.859388 1295.453938,4931.177800 1289.990299,4947.483961 1324.537255,4979.155753 1336.655432,4968.345316 1383.851298,5024.531188 1275.922967,5118.479848"/>
    <poly id="1059458152" type="landuse.orchard" color="194,194,130" fill="1" layer="-3.00" shape="627.588876,4886.357943 651.452487,4834.025351 610.803855,4844.815940 605.219072,4828.582298 550.654133,4844.696947 526.857637,4844.970231 519.928187,4831.868681 427.061397,4834.543550 427.947030,4799.868108 521.403038,4790.940600 580.980024,4771.231842 629.232729,4733.139862 646.945489,4715.071721 673.503070,4726.300553 758.159477,4759.006326 732.413158,4570.993564 757.225448,4561.126804 757.265405,4476.694387 750.500173,4442.361012 679.551054,4449.175353 680.662433,4418.415458 648.970950,4422.262853 645.546805,4399.537357 734.659829,4381.696429 717.837547,4337.307837 703.069211,4314.151900 722.201376,4305.626059 723.044291,4297.641867 725.176359,4276.375413 706.734873,4252.802915 628.330729,4183.922598 600.214958,4155.868975 588.792191,4136.161311 567.659326,4078.154338 515.307172,4034.261468 478.191564,4009.727289 427.640962,3993.601829 466.243063,4085.330509 349.736982,4115.518566 360.942560,4179.413045 351.554694,4240.746918 338.897147,4303.992143 319.897255,4354.998247 275.530467,4406.206833 203.363245,4445.108898 163.896519,4478.115450 174.052551,4504.901632 139.325982,4534.956123 95.764180,4496.238948 -194.658234,4447.415598 -394.707015,4386.297749 -537.988057,4295.954969 -575.843224,4285.049434 -604.831825,4317.802099 -611.741797,4323.300694 -543.483113,4403.253880 -613.608640,4361.579058 -604.995051,4378.198242 -599.443804,4398.799175 -542.018111,4475.806378 -452.569198,4560.803318 -435.285811,4602.736192 -390.219633,4658.051068 -298.025200,4700.012157 -241.964555,4732.996829 -234.002689,4758.325509 -198.260540,4777.949428 -185.290012,4801.317830 -172.316828,4814.447655 -158.051159,4819.453338 -140.715050,4822.545389 -64.461142,4858.586868 -53.547498,4830.807767 -68.615678,4823.614591 -42.667477,4764.352735 -26.946422,4709.320494 30.300376,4764.175989 75.689559,4789.971644 90.741780,4748.350832 176.019360,4825.010395 178.060213,4828.577922 185.657385,4839.195805 214.424127,4828.656373 234.479683,4815.424971 329.463497,4828.088081 332.270630,4852.129852 306.779239,4870.784827 329.707918,4908.465733 314.034222,4932.537007 342.779056,4962.196679 396.011754,4975.392486 418.942287,4983.891954 423.996665,4907.093702 516.141939,4921.842543 514.170129,4958.863399 603.967960,4914.880779 627.588876,4886.357943"/>