<?xml version="1.0" encoding="UTF-8"?>

<!-- generated on 2022-11-16 13:48:08.560444 by celery UNKNOWN
<configuration>
    <end value="3600.0"/>
    <max-distance value="2000.0"/>
    <net-file value="/sesam-data/scenarios-guests/2jmnyrt34uzvbycc1hz47bmino62d0mr/a47b83ba-817b-4a46-8f3e-e089bf896a81/osm.net.xml"/>
    <pedestrians value="True"/>
    <period value="0.30246842719033373"/>
    <route-file value="/sesam-data/scenarios-guests/2jmnyrt34uzvbycc1hz47bmino62d0mr/a47b83ba-817b-4a46-8f3e-e089bf896a81/osm.pedestrian.rou.xml"/>
    <output-trip-file value="/sesam-data/scenarios-guests/2jmnyrt34uzvbycc1hz47bmino62d0mr/a47b83ba-817b-4a46-8f3e-e089bf896a81/osm.pedestrian.trips.xml"/>
    <prefix value="ped"/>
    <vehicle-class value="pedestrian"/>
</configuration>
-->

<routes xmlns:xsi="http://www.w3.org/2001/XMLSchema-instance" xsi:noNamespaceSchemaLocation="http://sumo.dlr.de/xsd/routes_file.xsd">
    <vType id="ped_pedestrian" vClass="pedestrian"/>
    <person id="ped0" depart="0.00" type="ped_pedestrian">
        <walk from="483521980#2" to="-394925302"/>
    </person>
    <person id="ped1" depart="0.30" type="ped_pedestrian">
        <walk from="-880055196" to="452747979#1"/>
    </person>
    <person id="ped2" depart="0.60" type="ped_pedestrian">
        <walk from="-394925304#2" to="-741317431#2"/>
    </person>
    <person id="ped3" depart="0.91" type="ped_pedestrian">
        <walk from="542303245" to="455131178"/>
    </person>
    <person id="ped4" depart="1.21" type="ped_pedestrian">
        <walk from="-880055201#1" to="467044422"/>
    </person>
    <person id="ped5" depart="1.51" type="ped_pedestrian">
        <walk from="880055199" to="-228682429#2"/>
    </person>
    <person id="ped6" depart="1.81" type="ped_pedestrian">
        <walk from="-886928913#1" to="-558161624#0"/>
    </person>
    <person id="ped7" depart="2.12" type="ped_pedestrian">
        <walk from="907860126" to="-886890800#1"/>
    </person>
    <person id="ped8" depart="2.42" type="ped_pedestrian">
        <walk from="-455131169" to="-460793034#5"/>
    </person>
    <person id="ped9" depart="2.72" type="ped_pedestrian">
        <walk from="604325940" to="-41368329#2"/>
    </person>
    <person id="ped10" depart="3.02" type="ped_pedestrian">
        <walk from="-880132938#0" to="-885384781#0"/>
    </person>
    <person id="ped11" depart="3.33" type="ped_pedestrian">
        <walk from="-452747972#0" to="-880478011#1"/>
    </person>
    <person id="ped12" depart="3.63" type="ped_pedestrian">
        <walk from="-479377369#4" to="-884614821#1"/>
    </person>
    <person id="ped13" depart="3.93" type="ped_pedestrian">
        <walk from="-952386438#1" to="-867545406"/>
    </person>
    <person id="ped14" depart="4.23" type="ped_pedestrian">
        <walk from="-883689035#1" to="886876626"/>
    </person>
    <person id="ped15" depart="4.54" type="ped_pedestrian">
        <walk from="-638294342#0" to="658283744#5"/>
    </person>
    <person id="ped16" depart="4.84" type="ped_pedestrian">
        <walk from="-573286670#3" to="1005736199"/>
    </person>
    <person id="ped17" depart="5.14" type="ped_pedestrian">
        <walk from="954991333" to="483521983"/>
    </person>
    <person id="ped18" depart="5.44" type="ped_pedestrian">
        <walk from="-880132940#1" to="-40260846#15"/>
    </person>
    <person id="ped19" depart="5.75" type="ped_pedestrian">
        <walk from="-885820114" to="-883689039#0"/>
    </person>
    <person id="ped20" depart="6.05" type="ped_pedestrian">
        <walk from="-867840883" to="886890799"/>
    </person>
    <person id="ped21" depart="6.35" type="ped_pedestrian">
        <walk from="543183983#0" to="228638292"/>
    </person>
    <person id="ped22" depart="6.65" type="ped_pedestrian">
        <walk from="-883676233" to="-881880360#0"/>
    </person>
    <person id="ped23" depart="6.96" type="ped_pedestrian">
        <walk from="455785911" to="-883674076#1"/>
    </person>
    <person id="ped24" depart="7.26" type="ped_pedestrian">
        <walk from="238955648" to="-880055198"/>
    </person>
    <person id="ped25" depart="7.56" type="ped_pedestrian">
        <walk from="994838987" to="452751116#0"/>
    </person>
    <person id="ped26" depart="7.86" type="ped_pedestrian">
        <walk from="-479772339#11" to="483321517"/>
    </person>
    <person id="ped27" depart="8.17" type="ped_pedestrian">
        <walk from="867783243" to="394228078#39"/>
    </person>
    <person id="ped28" depart="8.47" type="ped_pedestrian">
        <walk from="987231219" to="454328166#1"/>
    </person>
    <person id="ped29" depart="8.77" type="ped_pedestrian">
        <walk from="948280008" to="883674073#1"/>
    </person>
    <person id="ped30" depart="9.07" type="ped_pedestrian">
        <walk from="-883689035#1" to="483521987"/>
    </person>
    <person id="ped31" depart="9.38" type="ped_pedestrian">
        <walk from="-479772339#7" to="394925302"/>
    </person>
    <person id="ped32" depart="9.68" type="ped_pedestrian">
        <walk from="884608625#1" to="-883676228"/>
    </person>
    <person id="ped33" depart="9.98" type="ped_pedestrian">
        <walk from="885758552" to="883702394"/>
    </person>
    <person id="ped34" depart="10.28" type="ped_pedestrian">
        <walk from="-885526418#0" to="483521980#0"/>
    </person>
    <person id="ped35" depart="10.59" type="ped_pedestrian">
        <walk from="866997427" to="454328168#2"/>
    </person>
    <person id="ped36" depart="10.89" type="ped_pedestrian">
        <walk from="-1005736201" to="-886868381"/>
    </person>
    <person id="ped37" depart="11.19" type="ped_pedestrian">
        <walk from="884611590#1" to="880494625#0"/>
    </person>
    <person id="ped38" depart="11.49" type="ped_pedestrian">
        <walk from="884611588" to="886928912#1"/>
    </person>
    <person id="ped39" depart="11.80" type="ped_pedestrian">
        <walk from="-452747982#0" to="436698646#1"/>
    </person>
    <person id="ped40" depart="12.10" type="ped_pedestrian">
        <walk from="41373316#1" to="455767039"/>
    </person>
    <person id="ped41" depart="12.40" type="ped_pedestrian">
        <walk from="-883676234" to="883714981"/>
    </person>
    <person id="ped42" depart="12.70" type="ped_pedestrian">
        <walk from="394228078#7" to="-868707014#0"/>
    </person>
    <person id="ped43" depart="13.01" type="ped_pedestrian">
        <walk from="455119698#3" to="658288529#0"/>
    </person>
    <person id="ped44" depart="13.31" type="ped_pedestrian">
        <walk from="-803113734#3" to="-885783115#0"/>
    </person>
    <person id="ped45" depart="13.61" type="ped_pedestrian">
        <walk from="987230174#2" to="542303245"/>
    </person>
    <person id="ped46" depart="13.91" type="ped_pedestrian">
        <walk from="39563209#0" to="452751129"/>
    </person>
    <person id="ped47" depart="14.22" type="ped_pedestrian">
        <walk from="-880132940#0" to="885750704#1"/>
    </person>
    <person id="ped48" depart="14.52" type="ped_pedestrian">
        <walk from="883674071#0" to="-452538552#3"/>
    </person>
    <person id="ped49" depart="14.82" type="ped_pedestrian">
        <walk from="-880495276#1" to="553344361"/>
    </person>
    <person id="ped50" depart="15.12" type="ped_pedestrian">
        <walk from="880044216#1" to="-685529601#1"/>
    </person>
    <person id="ped51" depart="15.43" type="ped_pedestrian">
        <walk from="394228078#8" to="41368466"/>
    </person>
    <person id="ped52" depart="15.73" type="ped_pedestrian">
        <walk from="658283744#4" to="556330870#0"/>
    </person>
    <person id="ped53" depart="16.03" type="ped_pedestrian">
        <walk from="883674074#2" to="-881915595"/>
    </person>
    <person id="ped54" depart="16.33" type="ped_pedestrian">
        <walk from="394228078#38" to="-884617329"/>
    </person>
    <person id="ped55" depart="16.64" type="ped_pedestrian">
        <walk from="948266315#0" to="885850884"/>
    </person>
    <person id="ped56" depart="16.94" type="ped_pedestrian">
        <walk from="881925763#1" to="-60780109#1"/>
    </person>
    <person id="ped57" depart="17.24" type="ped_pedestrian">
        <walk from="-995451111" to="952386437"/>
    </person>
    <person id="ped58" depart="17.54" type="ped_pedestrian">
        <walk from="41205034#3" to="394228078#6"/>
    </person>
    <person id="ped59" depart="17.85" type="ped_pedestrian">
        <walk from="907860127" to="987230175"/>
    </person>
    <person id="ped60" depart="18.15" type="ped_pedestrian">
        <walk from="455779059#22" to="656010723#1"/>
    </person>
    <person id="ped61" depart="18.45" type="ped_pedestrian">
        <walk from="455131170" to="685477219#25"/>
    </person>
    <person id="ped62" depart="18.75" type="ped_pedestrian">
        <walk from="452747973#2" to="883670991#1"/>
    </person>
    <person id="ped63" depart="19.06" type="ped_pedestrian">
        <walk from="-452747972#1" to="-676881121"/>
    </person>
    <person id="ped64" depart="19.36" type="ped_pedestrian">
        <walk from="479377369#4" to="556815235#3"/>
    </person>
    <person id="ped65" depart="19.66" type="ped_pedestrian">
        <walk from="-880494618" to="-483252216"/>
    </person>
    <person id="ped66" depart="19.96" type="ped_pedestrian">
        <walk from="885092445#1" to="-881880359"/>
    </person>
    <person id="ped67" depart="20.27" type="ped_pedestrian">
        <walk from="479377369#2" to="483119392"/>
    </person>
    <person id="ped68" depart="20.57" type="ped_pedestrian">
        <walk from="394228078#29" to="460793034#5"/>
    </person>
    <person id="ped69" depart="20.87" type="ped_pedestrian">
        <walk from="452762106" to="886876619"/>
    </person>
    <person id="ped70" depart="21.17" type="ped_pedestrian">
        <walk from="-867454153" to="619494506"/>
    </person>
    <person id="ped71" depart="21.48" type="ped_pedestrian">
        <walk from="-880536697" to="228638292"/>
    </person>
    <person id="ped72" depart="21.78" type="ped_pedestrian">
        <walk from="556075180" to="-885750702#0"/>
    </person>
    <person id="ped73" depart="22.08" type="ped_pedestrian">
        <walk from="-885820116" to="685508400#2"/>
    </person>
    <person id="ped74" depart="22.38" type="ped_pedestrian">
        <walk from="-452557201#0" to="41205038#5"/>
    </person>
    <person id="ped75" depart="22.69" type="ped_pedestrian">
        <walk from="995451108#1" to="987231219"/>
    </person>
    <person id="ped76" depart="22.99" type="ped_pedestrian">
        <walk from="-883676235" to="886870172#1"/>
    </person>
    <person id="ped77" depart="23.29" type="ped_pedestrian">
        <walk from="884614821#1" to="884614804#1"/>
    </person>
    <person id="ped78" depart="23.59" type="ped_pedestrian">
        <walk from="-952386437" to="-559581433#1"/>
    </person>
    <person id="ped79" depart="23.90" type="ped_pedestrian">
        <walk from="880732674" to="594310901#1"/>
    </person>
    <person id="ped80" depart="24.20" type="ped_pedestrian">
        <walk from="542311682#0" to="-324366227#1"/>
    </person>
    <person id="ped81" depart="24.50" type="ped_pedestrian">
        <walk from="880132929#3" to="-885537270"/>
    </person>
    <person id="ped82" depart="24.80" type="ped_pedestrian">
        <walk from="552452295" to="886881111"/>
    </person>
    <person id="ped83" depart="25.10" type="ped_pedestrian">
        <walk from="-542303245" to="-483084857"/>
    </person>
    <person id="ped84" depart="25.41" type="ped_pedestrian">
        <walk from="-479772337#0" to="455779059#12"/>
    </person>
    <person id="ped85" depart="25.71" type="ped_pedestrian">
        <walk from="639792912" to="-867121652"/>
    </person>
    <person id="ped86" depart="26.01" type="ped_pedestrian">
        <walk from="483324382" to="-883676230"/>
    </person>
    <person id="ped87" depart="26.31" type="ped_pedestrian">
        <walk from="881915596#0" to="-455119698#3"/>
    </person>
    <person id="ped88" depart="26.62" type="ped_pedestrian">
        <walk from="394228078#8" to="-884614818"/>
    </person>
    <person id="ped89" depart="26.92" type="ped_pedestrian">
        <walk from="394441639#1" to="-334859030#1"/>
    </person>
    <person id="ped90" depart="27.22" type="ped_pedestrian">
        <walk from="-452718042#3" to="884634217#0"/>
    </person>
    <person id="ped91" depart="27.52" type="ped_pedestrian">
        <walk from="880732680" to="460793034#0"/>
    </person>
    <person id="ped92" depart="27.83" type="ped_pedestrian">
        <walk from="-885758555" to="885526408#0"/>
    </person>
    <person id="ped93" depart="28.13" type="ped_pedestrian">
        <walk from="867869729" to="883674073#1"/>
    </person>
    <person id="ped94" depart="28.43" type="ped_pedestrian">
        <walk from="885526408#0" to="-867770764"/>
    </person>
    <person id="ped95" depart="28.73" type="ped_pedestrian">
        <walk from="867012861" to="884634238"/>
    </person>
    <person id="ped96" depart="29.04" type="ped_pedestrian">
        <walk from="364410146#6" to="483119413#1"/>
    </person>
    <person id="ped97" depart="29.34" type="ped_pedestrian">
        <walk from="-558161623#3" to="886181690"/>
    </person>
    <person id="ped98" depart="29.64" type="ped_pedestrian">
        <walk from="880055201#2" to="884617328#1"/>
    </person>
    <person id="ped99" depart="29.94" type="ped_pedestrian">
        <walk from="-394925302" to="676881125"/>
    </person>
    <person id="ped100" depart="30.25" type="ped_pedestrian">
        <walk from="-886881112" to="886868381"/>
    </person>
    <person id="ped101" depart="30.55" type="ped_pedestrian">
        <walk from="880055201#2" to="-883689035#0"/>
    </person>
    <person id="ped102" depart="30.85" type="ped_pedestrian">
        <walk from="883714978#3" to="883670999#8"/>
    </person>
    <person id="ped103" depart="31.15" type="ped_pedestrian">
        <walk from="41205041#2" to="-885750717#2"/>
    </person>
    <person id="ped104" depart="31.46" type="ped_pedestrian">
        <walk from="867839277" to="-880132935"/>
    </person>
    <person id="ped105" depart="31.76" type="ped_pedestrian">
        <walk from="-886876619" to="883676230"/>
    </person>
    <person id="ped106" depart="32.06" type="ped_pedestrian">
        <walk from="946571011#1" to="-884617336"/>
    </person>
    <person id="ped107" depart="32.36" type="ped_pedestrian">
        <walk from="929837804#3" to="-883689028"/>
    </person>
    <person id="ped108" depart="32.67" type="ped_pedestrian">
        <walk from="-479772337#5" to="394925302"/>
    </person>
    <person id="ped109" depart="32.97" type="ped_pedestrian">
        <walk from="658283744#2" to="-885804922#1"/>
    </person>
    <person id="ped110" depart="33.27" type="ped_pedestrian">
        <walk from="479772339#8" to="452751120#0"/>
    </person>
    <person id="ped111" depart="33.57" type="ped_pedestrian">
        <walk from="1037846162" to="458365932#7"/>
    </person>
    <person id="ped112" depart="33.88" type="ped_pedestrian">
        <walk from="-883670993#0" to="60780109#5"/>
    </person>
    <person id="ped113" depart="34.18" type="ped_pedestrian">
        <walk from="553147233" to="-886876628#1"/>
    </person>
    <person id="ped114" depart="34.48" type="ped_pedestrian">
        <walk from="656010733" to="-885750703"/>
    </person>
    <person id="ped115" depart="34.78" type="ped_pedestrian">
        <walk from="334859020" to="-885526408#2"/>
    </person>
    <person id="ped116" depart="35.09" type="ped_pedestrian">
        <walk from="-483326399" to="394228078#33"/>
    </person>
    <person id="ped117" depart="35.39" type="ped_pedestrian">
        <walk from="886881117" to="557419955"/>
    </person>
    <person id="ped118" depart="35.69" type="ped_pedestrian">
        <walk from="885526418#1" to="483091067#1"/>
    </person>
    <person id="ped119" depart="35.99" type="ped_pedestrian">
        <walk from="-1005736199" to="-885092446"/>
    </person>
    <person id="ped120" depart="36.30" type="ped_pedestrian">
        <walk from="394441642#0" to="458728028#1"/>
    </person>
    <person id="ped121" depart="36.60" type="ped_pedestrian">
        <walk from="542311683" to="41368356#0"/>
    </person>
    <person id="ped122" depart="36.90" type="ped_pedestrian">
        <walk from="41373313#19" to="885526413#2"/>
    </person>
    <person id="ped123" depart="37.20" type="ped_pedestrian">
        <walk from="-452747980#0" to="452751126#0"/>
    </person>
    <person id="ped124" depart="37.51" type="ped_pedestrian">
        <walk from="483324372" to="-886886878#2"/>
    </person>
    <person id="ped125" depart="37.81" type="ped_pedestrian">
        <walk from="556330869#0" to="-880108604#0"/>
    </person>
    <person id="ped126" depart="38.11" type="ped_pedestrian">
        <walk from="-741317431#3" to="-394925300#1"/>
    </person>
    <person id="ped127" depart="38.41" type="ped_pedestrian">
        <walk from="-881816019#4" to="41373316#1"/>
    </person>
    <person id="ped128" depart="38.72" type="ped_pedestrian">
        <walk from="882268996#1" to="-452557201#1"/>
    </person>
    <person id="ped129" depart="39.02" type="ped_pedestrian">
        <walk from="394228078#12" to="483324361#0"/>
    </person>
    <person id="ped130" depart="39.32" type="ped_pedestrian">
        <walk from="-690251843#0" to="573286670#4"/>
    </person>
    <person id="ped131" depart="39.62" type="ped_pedestrian">
        <walk from="452718042#3" to="-881816019#1"/>
    </person>
    <person id="ped132" depart="39.93" type="ped_pedestrian">
        <walk from="543208147" to="-186444218#1"/>
    </person>
    <person id="ped133" depart="40.23" type="ped_pedestrian">
        <walk from="-479564737" to="39423562#0"/>
    </person>
    <person id="ped134" depart="40.53" type="ped_pedestrian">
        <walk from="-656840729#2" to="911028962"/>
    </person>
    <person id="ped135" depart="40.83" type="ped_pedestrian">
        <walk from="452751130" to="-41368356#2"/>
    </person>
    <person id="ped136" depart="41.14" type="ped_pedestrian">
        <walk from="656010730" to="452747978#1"/>
    </person>
    <person id="ped137" depart="41.44" type="ped_pedestrian">
        <walk from="41373313#9" to="-883674070"/>
    </person>
    <person id="ped138" depart="41.74" type="ped_pedestrian">
        <walk from="-881880361" to="483521978#0"/>
    </person>
    <person id="ped139" depart="42.04" type="ped_pedestrian">
        <walk from="693604558" to="452762098"/>
    </person>
    <person id="ped140" depart="42.35" type="ped_pedestrian">
        <walk from="483321515" to="-884611581"/>
    </person>
    <person id="ped141" depart="42.65" type="ped_pedestrian">
        <walk from="-452738166#0" to="-885071613"/>
    </person>
    <person id="ped142" depart="42.95" type="ped_pedestrian">
        <walk from="455119701" to="-550989530#2"/>
    </person>
    <person id="ped143" depart="43.25" type="ped_pedestrian">
        <walk from="-880153159" to="565930020#2"/>
    </person>
    <person id="ped144" depart="43.56" type="ped_pedestrian">
        <walk from="366605979#6" to="455131172"/>
    </person>
    <person id="ped145" depart="43.86" type="ped_pedestrian">
        <walk from="394228078#17" to="-867517423"/>
    </person>
    <person id="ped146" depart="44.16" type="ped_pedestrian">
        <walk from="394228078#32" to="885750703"/>
    </person>
    <person id="ped147" depart="44.46" type="ped_pedestrian">
        <walk from="462192479#2" to="573286670#1"/>
    </person>
    <person id="ped148" depart="44.77" type="ped_pedestrian">
        <walk from="883670999#1" to="693604558"/>
    </person>
    <person id="ped149" depart="45.07" type="ped_pedestrian">
        <walk from="1005738204#0" to="-228682429#0"/>
    </person>
    <person id="ped150" depart="45.37" type="ped_pedestrian">
        <walk from="883670992#1" to="906654170"/>
    </person>
    <person id="ped151" depart="45.67" type="ped_pedestrian">
        <walk from="-880055201#2" to="-880055198"/>
    </person>
    <person id="ped152" depart="45.98" type="ped_pedestrian">
        <walk from="394925304#0" to="-39563209#3"/>
    </person>
    <person id="ped153" depart="46.28" type="ped_pedestrian">
        <walk from="-886890799" to="557419959#6"/>
    </person>
    <person id="ped154" depart="46.58" type="ped_pedestrian">
        <walk from="41368468" to="-483326400"/>
    </person>
    <person id="ped155" depart="46.88" type="ped_pedestrian">
        <walk from="483119418" to="-394925304#4"/>
    </person>
    <person id="ped156" depart="47.19" type="ped_pedestrian">
        <walk from="221684538#1" to="458365134#2"/>
    </person>
    <person id="ped157" depart="47.49" type="ped_pedestrian">
        <walk from="-394925304#4" to="483742745"/>
    </person>
    <person id="ped158" depart="47.79" type="ped_pedestrian">
        <walk from="-542303250#1" to="41368330#1"/>
    </person>
    <person id="ped159" depart="48.09" type="ped_pedestrian">
        <walk from="689223696" to="1005726278"/>
    </person>
    <person id="ped160" depart="48.39" type="ped_pedestrian">
        <walk from="-882654754" to="-452747974#0"/>
    </person>
    <person id="ped161" depart="48.70" type="ped_pedestrian">
        <walk from="542303245" to="867032806#2"/>
    </person>
    <person id="ped162" depart="49.00" type="ped_pedestrian">
        <walk from="886952471" to="-790806434"/>
    </person>
    <person id="ped163" depart="49.30" type="ped_pedestrian">
        <walk from="458365134#0" to="-880055194#0"/>
    </person>
    <person id="ped164" depart="49.60" type="ped_pedestrian">
        <walk from="880132936#0" to="946551614"/>
    </person>
    <person id="ped165" depart="49.91" type="ped_pedestrian">
        <walk from="-479772337#4" to="-394925303#2"/>
    </person>
    <person id="ped166" depart="50.21" type="ped_pedestrian">
        <walk from="-885783115#1" to="557419955"/>
    </person>
    <person id="ped167" depart="50.51" type="ped_pedestrian">
        <walk from="612435954#0" to="-452719707"/>
    </person>
    <person id="ped168" depart="50.81" type="ped_pedestrian">
        <walk from="564776700#1" to="483321516"/>
    </person>
    <person id="ped169" depart="51.12" type="ped_pedestrian">
        <walk from="882611631" to="479550331#3"/>
    </person>
    <person id="ped170" depart="51.42" type="ped_pedestrian">
        <walk from="452747980#1" to="-886952470"/>
    </person>
    <person id="ped171" depart="51.72" type="ped_pedestrian">
        <walk from="882268996#0" to="880132939"/>
    </person>
    <person id="ped172" depart="52.02" type="ped_pedestrian">
        <walk from="483326400" to="880478013"/>
    </person>
    <person id="ped173" depart="52.33" type="ped_pedestrian">
        <walk from="660278626#1" to="946571003"/>
    </person>
    <person id="ped174" depart="52.63" type="ped_pedestrian">
        <walk from="-883768395#0" to="880055194#1"/>
    </person>
    <person id="ped175" depart="52.93" type="ped_pedestrian">
        <walk from="-883689040" to="883670988"/>
    </person>
    <person id="ped176" depart="53.23" type="ped_pedestrian">
        <walk from="41368355#1" to="483084856"/>
    </person>
    <person id="ped177" depart="53.54" type="ped_pedestrian">
        <walk from="-869743172" to="867869735"/>
    </person>
    <person id="ped178" depart="53.84" type="ped_pedestrian">
        <walk from="-886942079" to="884614820"/>
    </person>
    <person id="ped179" depart="54.14" type="ped_pedestrian">
        <walk from="577672468#1" to="-884614804#1"/>
    </person>
    <person id="ped180" depart="54.44" type="ped_pedestrian">
        <walk from="-452747982#0" to="656010735"/>
    </person>
    <person id="ped181" depart="54.75" type="ped_pedestrian">
        <walk from="-455131180#0" to="-880055201#5"/>
    </person>
    <person id="ped182" depart="55.05" type="ped_pedestrian">
        <walk from="564780813#1" to="-885754891"/>
    </person>
    <person id="ped183" depart="55.35" type="ped_pedestrian">
        <walk from="458734269#1" to="41373313#19"/>
    </person>
    <person id="ped184" depart="55.65" type="ped_pedestrian">
        <walk from="454328169#2" to="39423562#1"/>
    </person>
    <person id="ped185" depart="55.96" type="ped_pedestrian">
        <walk from="-882268996#2" to="-483321500#1"/>
    </person>
    <person id="ped186" depart="56.26" type="ped_pedestrian">
        <walk from="-676881118#1" to="-880044213"/>
    </person>
    <person id="ped187" depart="56.56" type="ped_pedestrian">
        <walk from="-884639402" to="-479377369#3"/>
    </person>
    <person id="ped188" depart="56.86" type="ped_pedestrian">
        <walk from="577665201#3" to="-483326389"/>
    </person>
    <person id="ped189" depart="57.17" type="ped_pedestrian">
        <walk from="883689036#1" to="452538552#7"/>
    </person>
    <person id="ped190" depart="57.47" type="ped_pedestrian">
        <walk from="41368623#6" to="395670731"/>
    </person>
    <person id="ped191" depart="57.77" type="ped_pedestrian">
        <walk from="880132938#1" to="316890561"/>
    </person>
    <person id="ped192" depart="58.07" type="ped_pedestrian">
        <walk from="-452567968" to="483324360#1"/>
    </person>
    <person id="ped193" depart="58.38" type="ped_pedestrian">
        <walk from="456420067#0" to="-885750716#1"/>
    </person>
    <person id="ped194" depart="58.68" type="ped_pedestrian">
        <walk from="867522304" to="-880132926"/>
    </person>
    <person id="ped195" depart="58.98" type="ped_pedestrian">
        <walk from="40010032" to="883674072"/>
    </person>
    <person id="ped196" depart="59.28" type="ped_pedestrian">
        <walk from="483119414#1" to="480708458"/>
    </person>
    <person id="ped197" depart="59.59" type="ped_pedestrian">
        <walk from="552450725#0" to="-559581432#0"/>
    </person>
    <person id="ped198" depart="59.89" type="ped_pedestrian">
        <walk from="-1035193186#1" to="40539558#3"/>
    </person>
    <person id="ped199" depart="60.19" type="ped_pedestrian">
        <walk from="479377369#0" to="-885416709"/>
    </person>
    <person id="ped200" depart="60.49" type="ped_pedestrian">
        <walk from="-880153160" to="60780109#13"/>
    </person>
    <person id="ped201" depart="60.80" type="ped_pedestrian">
        <walk from="594310900#3" to="406924957"/>
    </person>
    <person id="ped202" depart="61.10" type="ped_pedestrian">
        <walk from="559581435#4" to="885822838"/>
    </person>
    <person id="ped203" depart="61.40" type="ped_pedestrian">
        <walk from="552451089#1" to="886870181#1"/>
    </person>
    <person id="ped204" depart="61.70" type="ped_pedestrian">
        <walk from="39423562#0" to="455131177"/>
    </person>
    <person id="ped205" depart="62.01" type="ped_pedestrian">
        <walk from="488043575#5" to="885750714"/>
    </person>
    <person id="ped206" depart="62.31" type="ped_pedestrian">
        <walk from="685477219#28" to="458365147#1"/>
    </person>
    <person id="ped207" depart="62.61" type="ped_pedestrian">
        <walk from="452718039#1" to="-452747973#0"/>
    </person>
    <person id="ped208" depart="62.91" type="ped_pedestrian">
        <walk from="-41205034#3" to="394450137"/>
    </person>
    <person id="ped209" depart="63.22" type="ped_pedestrian">
        <walk from="880894624#0" to="458365932#2"/>
    </person>
    <person id="ped210" depart="63.52" type="ped_pedestrian">
        <walk from="886964857" to="995451110"/>
    </person>
    <person id="ped211" depart="63.82" type="ped_pedestrian">
        <walk from="556075418" to="-883702392#1"/>
    </person>
    <person id="ped212" depart="64.12" type="ped_pedestrian">
        <walk from="41368665" to="542303248#2"/>
    </person>
    <person id="ped213" depart="64.43" type="ped_pedestrian">
        <walk from="462374838" to="483326393#0"/>
    </person>
    <person id="ped214" depart="64.73" type="ped_pedestrian">
        <walk from="452557202#0" to="-454328173"/>
    </person>
    <person id="ped215" depart="65.03" type="ped_pedestrian">
        <walk from="-907816241" to="-886881117"/>
    </person>
    <person id="ped216" depart="65.33" type="ped_pedestrian">
        <walk from="880103672" to="455767045"/>
    </person>
    <person id="ped217" depart="65.64" type="ped_pedestrian">
        <walk from="-886181687" to="948270932"/>
    </person>
    <person id="ped218" depart="65.94" type="ped_pedestrian">
        <walk from="337053897#1" to="452751125#2"/>
    </person>
    <person id="ped219" depart="66.24" type="ped_pedestrian">
        <walk from="455131171" to="394226649#3"/>
    </person>
    <person id="ped220" depart="66.54" type="ped_pedestrian">
        <walk from="455764106" to="886092299"/>
    </person>
    <person id="ped221" depart="66.85" type="ped_pedestrian">
        <walk from="39563209#0" to="577672464#1"/>
    </person>
    <person id="ped222" depart="67.15" type="ped_pedestrian">
        <walk from="41368330#0" to="-483091071#3"/>
    </person>
    <person id="ped223" depart="67.45" type="ped_pedestrian">
        <walk from="880494625#2" to="452738165#2"/>
    </person>
    <person id="ped224" depart="67.75" type="ped_pedestrian">
        <walk from="638294342#0" to="452751115#0"/>
    </person>
    <person id="ped225" depart="68.06" type="ped_pedestrian">
        <walk from="885820115#0" to="452751114#4"/>
    </person>
    <person id="ped226" depart="68.36" type="ped_pedestrian">
        <walk from="884614804#1" to="883676229"/>
    </person>
    <person id="ped227" depart="68.66" type="ped_pedestrian">
        <walk from="-884614804#1" to="867519195"/>
    </person>
    <person id="ped228" depart="68.96" type="ped_pedestrian">
        <walk from="394228078#14" to="886870183#0"/>
    </person>
    <person id="ped229" depart="69.27" type="ped_pedestrian">