<?xml version="1.0" encoding="UTF-8"?>

<!-- generated on 2022-11-16 13:48:08.372647 by celery UNKNOWN
<configuration>
    <allow-fringe.min-length value="1000.0"/>
    <end value="3600.0"/>
    <fringe-factor value="5.0"/>
    <fringe-start-attributes value="departSpeed=&quot;max&quot;"/>
    <lanes value="True"/>
    <min-distance value="300.0"/>
    <net-file value="/sesam-data/scenarios-guests/2jmnyrt34uzvbycc1hz47bmino62d0mr/a47b83ba-817b-4a46-8f3e-e089bf896a81/osm.net.xml"/>
    <period value="0.3818081694195872"/>
    <route-file value="/sesam-data/scenarios-guests/2jmnyrt34uzvbycc1hz47bmino62d0mr/a47b83ba-817b-4a46-8f3e-e089bf896a81/osm.passenger.rou.xml"/>
    <trip-attributes value="departLane=&quot;best&quot;"/>
    <output-trip-file value="/sesam-data/scenarios-guests/2jmnyrt34uzvbycc1hz47bmino62d0mr/a47b83ba-817b-4a46-8f3e-e089bf896a81/osm.passenger.trips.xml"/>
    <prefix value="veh"/>
    <validate value="True"/>
    <vehicle-class value="passenger"/>
</configuration>
-->

<!-- generated on 2022-11-16 13:48:08 by Eclipse SUMO duarouter Version 1.14.1
<configuration xmlns:xsi="http://www.w3.org/2001/XMLSchema-instance" xsi:noNamespaceSchemaLocation="http://sumo.dlr.de/xsd/duarouterConfiguration.xsd">

    <input>
        <net-file value="/sesam-data/scenarios-guests/2jmnyrt34uzvbycc1hz47bmino62d0mr/a47b83ba-817b-4a46-8f3e-e089bf896a81/osm.net.xml"/>
        <route-files value="/sesam-data/scenarios-guests/2jmnyrt34uzvbycc1hz47bmino62d0mr/a47b83ba-817b-4a46-8f3e-e089bf896a81/osm.passenger.trips.xml"/>
    </input>

    <output>
        <output-file value="/sesam-data/scenarios-guests/2jmnyrt34uzvbycc1hz47bmino62d0mr/a47b83ba-817b-4a46-8f3e-e089bf896a81/osm.passenger.trips.xml.tmp"/>
        <alternatives-output value="NUL"/>
        <write-trips value="true"/>
    </output>

    <time>
        <begin value="0"/>
        <end value="3600.0"/>
    </time>

    <report>
        <no-warnings value="true"/>
        <ignore-errors value="true"/>
        <no-step-log value="true"/>
    </report>

</configuration>
-->

<routes xmlns:xsi="http://www.w3.org/2001/XMLSchema-instance" xsi:noNamespaceSchemaLocation="http://sumo.dlr.de/xsd/routes_file.xsd"/>
